Version 4
SHEET 1 3080 680
WIRE 16 -3792 -304 -3792
WIRE 176 -3792 112 -3792
WIRE 192 -3792 176 -3792
WIRE 432 -3792 288 -3792
WIRE 656 -3792 432 -3792
WIRE -304 -3664 -304 -3792
WIRE -304 -3664 -496 -3664
WIRE -128 -3664 -160 -3664
WIRE -32 -3664 -64 -3664
WIRE 96 -3664 48 -3664
WIRE 208 -3664 208 -3744
WIRE 208 -3664 96 -3664
WIRE -160 -3648 -160 -3664
WIRE 208 -3616 208 -3664
WIRE 304 -3616 208 -3616
WIRE -496 -3600 -496 -3664
WIRE -304 -3520 -304 -3664
WIRE 48 -3520 -304 -3520
WIRE -496 -3488 -496 -3520
WIRE 48 -3440 48 -3520
WIRE 176 -3440 176 -3792
WIRE 304 -3440 304 -3616
WIRE 432 -3440 432 -3792
WIRE -384 -3312 -384 -3328
WIRE -288 -3312 -384 -3312
WIRE -160 -3312 -208 -3312
WIRE 0 -3312 -160 -3312
WIRE -160 -3120 -160 -3312
WIRE 240 -3120 240 -3184
WIRE -160 -2944 -160 -3040
WIRE 240 -2944 240 -3040
WIRE 240 -2944 -160 -2944
WIRE 240 -2896 240 -2944
WIRE 656 -2688 656 -3792
WIRE -16 -2544 -336 -2544
WIRE 144 -2544 80 -2544
WIRE 160 -2544 144 -2544
WIRE 400 -2544 256 -2544
WIRE 656 -2544 656 -2688
WIRE 656 -2544 400 -2544
WIRE 1088 -2544 656 -2544
WIRE 1088 -2512 1088 -2544
WIRE -336 -2416 -336 -2544
WIRE -336 -2416 -528 -2416
WIRE -160 -2416 -192 -2416
WIRE -64 -2416 -96 -2416
WIRE 64 -2416 16 -2416
WIRE 176 -2416 176 -2496
WIRE 176 -2416 64 -2416
WIRE -192 -2400 -192 -2416
WIRE 1088 -2384 1088 -2432
WIRE 176 -2368 176 -2416
WIRE 272 -2368 176 -2368
WIRE -528 -2352 -528 -2416
WIRE -336 -2272 -336 -2416
WIRE 16 -2272 -336 -2272
WIRE -528 -2240 -528 -2272
WIRE 16 -2192 16 -2272
WIRE 144 -2192 144 -2544
WIRE 272 -2192 272 -2368
WIRE 400 -2192 400 -2544
WIRE -416 -2064 -416 -2080
WIRE -320 -2064 -416 -2064
WIRE -192 -2064 -240 -2064
WIRE -32 -2064 -192 -2064
WIRE -192 -1872 -192 -2064
WIRE 208 -1872 208 -1936
WIRE -192 -1696 -192 -1792
WIRE 208 -1696 208 -1792
WIRE 208 -1696 -192 -1696
WIRE 208 -1648 208 -1696
WIRE -16 -1376 -336 -1376
WIRE 144 -1376 80 -1376
WIRE 160 -1376 144 -1376
WIRE 400 -1376 256 -1376
WIRE 656 -1376 656 -2544
WIRE 656 -1376 400 -1376
WIRE -336 -1248 -336 -1376
WIRE -336 -1248 -528 -1248
WIRE -160 -1248 -192 -1248
WIRE -64 -1248 -96 -1248
WIRE 64 -1248 16 -1248
WIRE 176 -1248 176 -1328
WIRE 176 -1248 64 -1248
WIRE -192 -1232 -192 -1248
WIRE 176 -1200 176 -1248
WIRE 272 -1200 176 -1200
WIRE -528 -1184 -528 -1248
WIRE -336 -1104 -336 -1248
WIRE 16 -1104 -336 -1104
WIRE -528 -1072 -528 -1104
WIRE 16 -1024 16 -1104
WIRE 144 -1024 144 -1376
WIRE 272 -1024 272 -1200
WIRE 400 -1024 400 -1376
WIRE -800 -944 -816 -944
WIRE -416 -896 -416 -912
WIRE -320 -896 -416 -896
WIRE -192 -896 -240 -896
WIRE -32 -896 -192 -896
WIRE -816 -848 -816 -944
WIRE -816 -720 -816 -768
WIRE -192 -704 -192 -896
WIRE 208 -704 208 -768
WIRE -192 -528 -192 -624
WIRE 208 -528 208 -624
WIRE 208 -528 -192 -528
WIRE 208 -480 208 -528
FLAG 208 -480 0
FLAG -416 -896 ENABLE
IOPIN -416 -896 BiDir
FLAG -528 -1072 0
FLAG -800 -944 ENABLE
IOPIN -800 -944 BiDir
FLAG -816 -720 0
FLAG -192 -1232 0
FLAG 208 -1648 0
FLAG -416 -2064 ENABLE
IOPIN -416 -2064 BiDir
FLAG -528 -2240 0
FLAG -192 -2400 0
FLAG 240 -2896 0
FLAG -384 -3312 ENABLE
IOPIN -384 -3312 BiDir
FLAG -496 -3488 0
FLAG -160 -3648 0
FLAG 656 -2688 VCC_BATT
IOPIN 656 -2688 BiDir
FLAG 1088 -2384 0
SYMBOL SpecialFunctions\\LTC4359 208 -896 R0
SYMATTR InstName U2
SYMBOL res 192 -720 R0
SYMATTR InstName R5
SYMATTR Value 1k
SYMBOL res -208 -720 R0
SYMATTR InstName R6
SYMATTR Value 100k
SYMBOL res -224 -912 R90
WINDOW 0 0 56 VBottom 2
WINDOW 3 32 56 VTop 2
SYMATTR InstName R7
SYMATTR Value 1k
SYMBOL voltage -528 -1200 R0
WINDOW 123 0 0 Left 2
WINDOW 39 0 0 Left 2
SYMATTR InstName V1
SYMATTR Value 14
SYMBOL nmos -16 -1328 R270
SYMATTR InstName M2
SYMATTR Value STS12NF30L
SYMBOL voltage -816 -864 R0
WINDOW 123 0 0 Left 2
WINDOW 39 0 0 Left 2
SYMATTR InstName V4
SYMATTR Value PULSE(0 9 0.1)
SYMBOL nmos 256 -1328 M270
SYMATTR InstName M1
SYMATTR Value STS12NF30L
SYMBOL res 48 -1344 R0
SYMATTR InstName R1
SYMATTR Value 10
SYMBOL res 32 -1264 R90
WINDOW 0 0 56 VBottom 2
WINDOW 3 32 56 VTop 2
SYMATTR InstName R2
SYMATTR Value 10k
SYMBOL cap -96 -1264 R90
WINDOW 0 0 32 VBottom 2
WINDOW 3 32 32 VTop 2
SYMATTR InstName C1
SYMATTR Value 10n
SYMBOL SpecialFunctions\\LTC4359 208 -2064 R0
SYMATTR InstName U1
SYMBOL res 192 -1888 R0
SYMATTR InstName R3
SYMATTR Value 1k
SYMBOL res -208 -1888 R0
SYMATTR InstName R4
SYMATTR Value 100k
SYMBOL res -224 -2080 R90
WINDOW 0 0 56 VBottom 2
WINDOW 3 32 56 VTop 2
SYMATTR InstName R8
SYMATTR Value 1k
SYMBOL voltage -528 -2368 R0
WINDOW 123 0 0 Left 2
WINDOW 39 0 0 Left 2
SYMATTR InstName V2
SYMATTR Value 14.51
SYMBOL nmos -16 -2496 R270
SYMATTR InstName M3
SYMATTR Value STS12NF30L
SYMBOL nmos 256 -2496 M270
SYMATTR InstName M4
SYMATTR Value STS12NF30L
SYMBOL res 48 -2512 R0
SYMATTR InstName R9
SYMATTR Value 10
SYMBOL res 32 -2432 R90
WINDOW 0 0 56 VBottom 2
WINDOW 3 32 56 VTop 2
SYMATTR InstName R10
SYMATTR Value 10k
SYMBOL cap -96 -2432 R90
WINDOW 0 0 32 VBottom 2
WINDOW 3 32 32 VTop 2
SYMATTR InstName C4
SYMATTR Value 10n
SYMBOL SpecialFunctions\\LTC4359 240 -3312 R0
SYMATTR InstName U3
SYMBOL res 224 -3136 R0
SYMATTR InstName R11
SYMATTR Value 1k
SYMBOL res -176 -3136 R0
SYMATTR InstName R12
SYMATTR Value 100k
SYMBOL res -192 -3328 R90
WINDOW 0 0 56 VBottom 2
WINDOW 3 32 56 VTop 2
SYMATTR InstName R14
SYMATTR Value 1k
SYMBOL voltage -496 -3616 R0
WINDOW 123 0 0 Left 2
WINDOW 39 24 44 Left 2
SYMATTR InstName V3
SYMATTR Value 14.5
SYMBOL nmos 16 -3744 R270
SYMATTR InstName M5
SYMATTR Value STS12NF30L
SYMBOL nmos 288 -3744 M270
SYMATTR InstName M6
SYMATTR Value STS12NF30L
SYMBOL res 80 -3760 R0
SYMATTR InstName R15
SYMATTR Value 10
SYMBOL res 64 -3680 R90
WINDOW 0 0 56 VBottom 2
WINDOW 3 32 56 VTop 2
SYMATTR InstName R16
SYMATTR Value 10k
SYMBOL cap -64 -3680 R90
WINDOW 0 0 32 VBottom 2
WINDOW 3 32 32 VTop 2
SYMATTR InstName C6
SYMATTR Value 10n
SYMBOL res 1072 -2528 R0
SYMATTR InstName R13
SYMATTR Value 5
TEXT -688 -624 Left 2 !.tran 5
